Version 4
SHEET 1 1228 1008
WIRE 128 96 128 64
WIRE -752 144 -928 144
WIRE -80 176 -80 112
WIRE -752 208 -752 144
WIRE 128 208 128 176
WIRE -272 224 -400 224
WIRE -336 256 -336 176
WIRE -400 272 -400 224
WIRE -368 272 -400 272
WIRE -272 288 -272 224
WIRE -272 288 -304 288
WIRE -208 288 -272 288
WIRE -80 288 -80 256
WIRE -80 288 -144 288
WIRE -32 288 -80 288
WIRE 80 288 48 288
WIRE -752 304 -752 288
WIRE -560 304 -752 304
WIRE -432 304 -496 304
WIRE -368 304 -432 304
WIRE -752 320 -752 304
WIRE -432 336 -432 304
WIRE -80 336 -80 288
WIRE 128 416 128 304
WIRE -80 448 -80 416
WIRE -752 480 -752 400
WIRE -432 480 -432 416
WIRE -336 480 -336 320
WIRE 304 496 304 464
WIRE 496 496 304 496
WIRE 752 496 496 496
WIRE 496 512 496 496
WIRE 816 544 704 544
WIRE -80 560 -80 528
WIRE -1360 576 -1360 544
WIRE 752 576 752 496
WIRE -1648 592 -1648 560
WIRE 704 592 704 544
WIRE 720 592 704 592
WIRE 304 608 304 496
WIRE 816 608 816 544
WIRE 816 608 784 608
WIRE 880 608 816 608
WIRE 496 624 496 592
WIRE 592 624 496 624
WIRE 720 624 592 624
WIRE 496 640 496 624
WIRE 592 640 592 624
WIRE -1360 704 -1360 656
WIRE -1648 720 -1648 672
WIRE 304 720 304 688
WIRE 496 720 304 720
WIRE 592 720 592 704
WIRE 592 720 496 720
WIRE 752 720 752 640
WIRE 752 720 592 720
WIRE 592 752 592 720
FLAG -80 560 0
FLAG -928 144 MOD_IN
FLAG -80 112 V+
FLAG 592 752 0
FLAG 880 608 Vref
FLAG 304 464 V+
FLAG -1648 720 0
FLAG -1360 704 0
FLAG -1360 544 SIG_IN
FLAG -1648 560 MOD_IN
FLAG -336 480 0
FLAG -336 176 V+
FLAG 128 416 0
FLAG 128 64 SIG_IN
FLAG -432 480 Vref
FLAG -752 480 0
SYMBOL res 64 272 R90
WINDOW 0 0 56 VBottom 2
WINDOW 3 32 56 VTop 2
SYMATTR InstName R1
SYMATTR Value 100
SYMBOL res -64 272 R180
WINDOW 0 36 76 Left 2
WINDOW 3 36 40 Left 2
SYMATTR InstName R2
SYMATTR Value 50k
SYMBOL res -96 320 R0
SYMATTR InstName R3
SYMATTR Value {100k*bias}
SYMBOL res -96 432 R0
SYMATTR InstName R4
SYMATTR Value 100
SYMBOL cap -144 272 R90
WINDOW 0 0 32 VBottom 2
WINDOW 3 32 32 VTop 2
SYMATTR InstName C1
SYMATTR Value 4.7µ
SYMBOL res -768 192 R0
SYMATTR InstName R6
SYMATTR Value {50k*att}
SYMBOL res -768 304 R0
SYMATTR InstName R7
SYMATTR Value {50k*(1-att)}
SYMBOL cap -496 288 R90
WINDOW 0 0 32 VBottom 2
WINDOW 3 32 32 VTop 2
SYMATTR InstName C2
SYMATTR Value 1µ
SYMBOL voltage 304 592 R0
SYMATTR InstName V1
SYMATTR Value 5V
SYMBOL res 480 496 R0
SYMATTR InstName R8
SYMATTR Value 100k
SYMBOL res 480 624 R0
SYMATTR InstName R9
SYMATTR Value 100k
SYMBOL cap 576 640 R0
SYMATTR InstName C3
SYMATTR Value 10µ
SYMBOL voltage -1648 576 R0
SYMATTR InstName V2
SYMATTR Value SINE(0 1.4 2000)
SYMATTR SpiceLine Rser=1k
SYMBOL voltage -1360 560 R0
SYMATTR InstName V3
SYMATTR Value PULSE(0 3.3V 0 10n 10n 0.012m 0.024m)
SYMATTR SpiceLine Rser=10
SYMBOL Opamps/LT1677 -336 224 R0
SYMATTR InstName U1
SYMBOL Opamps/LT1677 752 544 R0
SYMATTR InstName U2
SYMBOL nmos 80 208 R0
SYMATTR InstName M2
SYMATTR Value STD30NF06L
SYMBOL res -448 320 R0
SYMATTR InstName R5
SYMATTR Value 1meg
SYMBOL res 112 80 R0
SYMATTR InstName R10
SYMATTR Value 100
TEXT -1656 120 Left 2 !.INCLUDE models/mcp6001.txt\n.INCLUDE models/std30nf06.txt\n.TRAN 0.001 1.0005 1.0
TEXT -888 184 Left 2 ;Attenuation\nPot
TEXT -1616 256 Left 2 !.param att = 0.7\n.param bias = 0.25
TEXT 216 136 Left 2 ;Optional Resistor\nin case current draw of \ndirect grounding is too high\nand causes spikes
RECTANGLE Normal -900 172 -592 416 3
